Circuit: * C:\Users\96279\Desktop\project vlsi\2bitxor.asc

Direct Newton iteration failed to find .op point.  (Use ".option noopiter" to skip.)
Starting Gmin stepping
Gmin = 10
Gmin = 1.07374
Gmin = 0.115292
Gmin = 0.0123794
Gmin = 0.00132923
Gmin = 0.000142725
Gmin = 1.5325e-005
Gmin = 1.6455e-006
Gmin = 1.76685e-007
Gmin = 1.89714e-008
Gmin = 2.03704e-009
Gmin = 2.18725e-010
Gmin = 2.34854e-011
Gmin = 2.52173e-012
Gmin = 2.70769e-013
Gmin = 0
Gmin stepping succeeded in finding the operating point.


Date: Sun May 28 20:23:25 2023
Total elapsed time: 0.531 seconds.

tnom = 27
temp = 27
method = modified trap
totiter = 4023
traniter = 3627
tranpoints = 1259
accept = 1210
rejected = 49
matrix size = 238
fillins = 0
solver = Normal
Thread vector: 50.7/37.0[4] 21.7/12.4[4] 3.3/4.8[1] 1.1/1.9[1]  2592/500
Matrix Compiler1: 28.71 KB object code size  13.7/6.5/[2.8]
Matrix Compiler2: 27.12 KB object code size  3.4/4.4/[1.6]

