Circuit: * C:\Users\hamza\Desktop\UNi\Spring2023\DE LAB\DE Project\project vlsi\project vlsi\2x2Sram.asc

Direct Newton iteration for .op point succeeded.

Date: Mon May 29 21:42:17 2023
Total elapsed time: 2.517 seconds.

tnom = 27
temp = 27
method = modified trap
totiter = 44252
traniter = 44233
tranpoints = 15723
accept = 12280
rejected = 3443
matrix size = 246
fillins = 8
solver = Normal
Avg thread counts: 3.0/3.0/1.1/1.0
Matrix Compiler1: 34.25 KB object code size  7.0/3.0/[2.1]
Matrix Compiler2: 31.11 KB object code size  3.3/2.6/[1.6]

