Circuit: * C:\Users\96279\Desktop\DE Project\DE Project\project vlsi\project vlsi\FinalProject.asc

Direct Newton iteration failed to find .op point.  (Use ".option noopiter" to skip.)
Starting Gmin stepping
Gmin = 10
Gmin = 1.07374
Gmin = 0.115292
Gmin = 0.0123794
Gmin = 0.00132923
Gmin = 0.000142725
Gmin = 1.5325e-005
Gmin = 1.6455e-006
Gmin = 1.76685e-007
Gmin = 1.89714e-008
Gmin = 2.03704e-009
Gmin = 2.18725e-010
Gmin = 2.34854e-011
Gmin = 2.52173e-012
Gmin = 2.70769e-013
Gmin = 0
Gmin stepping succeeded in finding the operating point.


Date: Tue May 30 14:07:56 2023
Total elapsed time: 16.250 seconds.

tnom = 27
temp = 27
method = modified trap
totiter = 16174
traniter = 15717
tranpoints = 4720
accept = 3849
rejected = 871
matrix size = 1311
fillins = 180
solver = Normal
Thread vector: 930.2/572.2[8] 112.8/74.8[8] 78.0/42.4[8] 8.5/11.6[1]  2592/500
Matrix Compiler1: 185.13 KB object code size  132.9/63.1/[27.5]
Matrix Compiler2: 157.58 KB object code size  62.6/63.4/[15.6]

