Circuit: * C:\Users\hamza\Desktop\UNi\Spring2023\DE LAB\DE Project\project vlsi\project vlsi\SRAM_column.asc

Direct Newton iteration for .op point succeeded.

Date: Mon May 29 18:11:31 2023
Total elapsed time: 3.972 seconds.

tnom = 27
temp = 27
method = modified trap
totiter = 56389
traniter = 56343
tranpoints = 22174
accept = 17753
rejected = 4421
matrix size = 114
fillins = 4
solver = Normal
Avg thread counts: 2.0/1.0/1.0/1.0
Matrix Compiler1: 15.44 KB object code size  6.3/3.4/[2.4]
Matrix Compiler2: 13.80 KB object code size  3.0/2.9/[1.5]

