Circuit: * C:\Users\96279\Documents\LTspiceXVII\xortest.asc

Direct Newton iteration failed to find .op point.  (Use ".option noopiter" to skip.)
Starting Gmin stepping
Gmin = 10
Gmin = 1.07374
Gmin = 0.115292
Gmin = 0.0123794
Gmin = 0.00132923
Gmin = 0.000142725
Gmin = 1.5325e-005
Gmin = 1.6455e-006
Gmin = 1.76685e-007
Gmin = 1.89714e-008
Gmin = 2.03704e-009
Gmin = 2.18725e-010
Gmin = 2.34854e-011
Gmin = 2.52173e-012
Gmin = 2.70769e-013
Gmin = 0
Gmin stepping succeeded in finding the operating point.


Date: Sun May 28 19:47:13 2023
Total elapsed time: 0.265 seconds.

tnom = 27
temp = 27
method = modified trap
totiter = 3846
traniter = 3450
tranpoints = 1203
accept = 1166
rejected = 37
matrix size = 119
fillins = 0
solver = Normal
Thread vector: 26.5/19.0[2] 10.5/6.7[2] 1.6/1.8[1] 0.6/1.3[1]  2592/500
Matrix Compiler1: 14.34 KB object code size  3.6/1.9/[0.9]
Matrix Compiler2: 13.57 KB object code size  1.4/2.1/[0.5]

